
wipe
model BasicBuilder -ndm 2 -ndf 2
timeSeries Linear 1
nDMaterial ElasticIsotropic 1 3000 0.3
node 1 0 0
node 2 0 1
node 3 0 2
node 4 0 3
node 5 0 4
node 6 0 5
node 7 0 6
node 8 0 7
node 9 0 8
node 10 0 9
node 11 0 10
node 12 10 0
node 13 10 1
node 14 10 2
node 15 10 3
node 16 10 4
node 17 10 5
node 18 10 6
node 19 10 7
node 20 10 8
# ... 101 like lines cut
fix 1 1 1
fix 2 1 1
fix 3 1 1
fix 4 1 1
fix 5 1 1
fix 6 1 1
fix 7 1 1
fix 8 1 1
fix 9 1 1
fix 10 1 1
fix 11 1 1
element quad 1 1 12 13 2 0.1 PlaneStrain 1
element quad 2 2 13 14 3 0.1 PlaneStrain 1
element quad 3 3 14 15 4 0.1 PlaneStrain 1
element quad 4 4 15 16 5 0.1 PlaneStrain 1
element quad 5 5 16 17 6 0.1 PlaneStrain 1
element quad 6 6 17 18 7 0.1 PlaneStrain 1
element quad 7 7 18 19 8 0.1 PlaneStrain 1
element quad 8 8 19 20 9 0.1 PlaneStrain 1
element quad 9 9 20 21 10 0.1 PlaneStrain 1
element quad 10 10 21 22 11 0.1 PlaneStrain 1
element quad 11 12 23 24 13 0.1 PlaneStrain 1
element quad 12 13 24 25 14 0.1 PlaneStrain 1
element quad 13 14 25 26 15 0.1 PlaneStrain 1
element quad 14 15 26 27 16 0.1 PlaneStrain 1
element quad 15 16 27 28 17 0.1 PlaneStrain 1
element quad 16 17 28 29 18 0.1 PlaneStrain 1
element quad 17 18 29 30 19 0.1 PlaneStrain 1
element quad 18 19 30 31 20 0.1 PlaneStrain 1
element quad 19 20 31 32 21 0.1 PlaneStrain 1
element quad 20 21 32 33 22 0.1 PlaneStrain 1
# ... 80 like lines cut
pattern Plain 1 1 {
  load 110 0.0 1.0
  load 111 0.0 1.0
  load 112 0.0 1.0
  load 113 0.0 1.0
  load 114 0.0 1.0
  load 115 0.0 1.0
  load 116 0.0 1.0
  load 117 0.0 1.0
  load 118 0.0 1.0
  load 119 0.0 1.0
  load 120 0.0 1.0
  load 121 0.0 1.0
}
system BandSPD
constraints Plain
numberer RCM
algorithm Linear
integrator LoadControl 0.1
analysis Static
